packages/bdgd2opendss/bdgd2opendss-1.0.1.tar.gz/bdgd2opendss-1.0.1/tests/dss_models_output/sub__/1_BOES_1/SegmentosBT_202312598_1_BOES_1_------1-----.dss
New "Line.SBT_35253" phases=4 bus1="BT808591.1.2.3.4" bus2="BT808611.1.2.3.4" linecode="74_4" length=0.035930000 units=km
New "Line.SBT_35254" phases=4 bus1="BT808801.1.2.3.4" bus2="ET3_6365.1.2.3.4" linecode="74_4" length=0.039340000 units=km
New "Line.SBT_35255" phases=4 bus1="BT808811.1.2.3.4" bus2="BT808801.1.2.3.4" linecode="74_4" length=0.027300000 units=km
New "Line.SBT_35256" phases=4 bus1="BT808821.1.2.3.4" bus2="BT808811.1.2.3.4" linecode="74_4" length=0.019720000 units=km
New "Line.SBT_35257" phases=4 bus1="BT808831.1.2.3.4" bus2="BT808821.1.2.3.4" linecode="74_4" length=0.030070000 units=km
New "Line.SBT_35258" phases=4 bus1="BT808841.1.2.3.4" bus2="BT808831.1.2.3.4" linecode="74_4" length=0.030160000 units=km
New "Line.SBT_35259" phases=4 bus1="BT808851.1.2.3.4" bus2="BT808841.1.2.3.4" linecode="74_4" length=0.027180000 units=km
New "Line.SBT_35260" phases=4 bus1="BT808891.1.2.3.4" bus2="ET3_6367.1.2.3.4" linecode="74_4" length=0.027810000 units=km
New "Line.SBT_35261" phases=4 bus1="BT808881.1.2.3.4" bus2="BT808891.1.2.3.4" linecode="74_4" length=0.028870000 units=km
New "Line.SBT_35262" phases=4 bus1="BT808871.1.2.3.4" bus2="BT808881.1.2.3.4" linecode="74_4" length=0.038500000 units=km
New "Line.SBT_35263" phases=4 bus1="BT808861.1.2.3.4" bus2="BT808871.1.2.3.4" linecode="74_4" length=0.039640000 units=km
New "Line.SBT_35264" phases=4 bus1="BT808911.1.2.3.4" bus2="ET3_6367.1.2.3.4" linecode="74_4" length=0.029200000 units=km
New "Line.SBT_35265" phases=4 bus1="BT808921.1.2.3.4" bus2="BT808911.1.2.3.4" linecode="74_4" length=0.030020000 units=km
New "Line.SBT_35266" phases=4 bus1="BT808931.1.2.3.4" bus2="BT808921.1.2.3.4" linecode="74_4" length=0.031410000 units=km
New "Line.SBT_35267" phases=4 bus1="BT808941.1.2.3.4" bus2="BT808931.1.2.3.4" linecode="74_4" length=0.029200000 units=km
New "Line.SBT_35268" phases=4 bus1="BT808971.1.2.3.4" bus2="ET3_6368.1.2.3.4" linecode="74_4" length=0.031730000 units=km
New "Line.SBT_35269" phases=4 bus1="BT808961.1.2.3.4" bus2="BT808971.1.2.3.4" linecode="74_4" length=0.038800000 units=km
New "Line.SBT_35270" phases=4 bus1="BT808951.1.2.3.4" bus2="BT808961.1.2.3.4" linecode="74_4" length=0.039590000 units=km
New "Line.SBT_35271" phases=4 bus1="BT808991.1.2.3.4" bus2="ET3_6368.1.2.3.4" linecode="74_4" length=0.027000000 units=km
New "Line.SBT_35272" phases=4 bus1="BT809001.1.2.3.4" bus2="BT808991.1.2.3.4" linecode="74_4" length=0.027810000 units=km
New "Line.SBT_35236" phases=4 bus1="BT808731.1.2.3.4" bus2="ET3_6366.1.2.3.4" linecode="74_4" length=0.028930000 units=km
New "Line.SBT_35237" phases=4 bus1="BT808741.1.2.3.4" bus2="BT808731.1.2.3.4" linecode="74_4" length=0.032530000 units=km
New "Line.SBT_35238" phases=4 bus1="BT808751.1.2.3.4" bus2="BT808741.1.2.3.4" linecode="74_4" length=0.023590000 units=km
New "Line.SBT_35239" phases=4 bus1="BT808761.1.2.3.4" bus2="BT808751.1.2.3.4" linecode="74_4" length=0.027080000 units=km
New "Line.SBT_35240" phases=4 bus1="BT808771.1.2.3.4" bus2="BT808761.1.2.3.4" linecode="74_4" length=0.039120000 units=km
New "Line.SBT_35241" phases=4 bus1="BT808781.1.2.3.4" bus2="BT808771.1.2.3.4" linecode="74_4" length=0.039220000 units=km
New "Line.SBT_35242" phases=4 bus1="BT808691.1.2.3.4" bus2="ET3_6366.1.2.3.4" linecode="74_4" length=0.021800000 units=km
New "Line.SBT_35243" phases=4 bus1="BT808701.1.2.3.4" bus2="BT808691.1.2.3.4" linecode="74_4" length=0.032150000 units=km
New "Line.SBT_35244" phases=4 bus1="BT808711.1.2.3.4" bus2="BT808701.1.2.3.4" linecode="74_4" length=0.027180000 units=km
New "Line.SBT_35245" phases=4 bus1="BT808721.1.2.3.4" bus2="BT808711.1.2.3.4" linecode="74_4" length=0.025090000 units=km
New "Line.SBT_35246" phases=4 bus1="BT808671.1.2.3.4" bus2="ET3_6366.1.2.3.4" linecode="74_4" length=0.029780000 units=km
New "Line.SBT_35247" phases=4 bus1="BT808661.1.2.3.4" bus2="BT808671.1.2.3.4" linecode="74_4" length=0.034200000 units=km
New "Line.SBT_35248" phases=4 bus1="BT808651.1.2.3.4" bus2="BT808661.1.2.3.4" linecode="74_4" length=0.025320000 units=km
New "Line.SBT_35249" phases=4 bus1="BT808641.1.2.3.4" bus2="ET3_6365.1.2.3.4" linecode="74_4" length=0.039340000 units=km
New "Line.SBT_35250" phases=4 bus1="BT808631.1.2.3.4" bus2="BT808641.1.2.3.4" linecode="74_4" length=0.039340000 units=km
New "Line.SBT_35251" phases=4 bus1="BT808621.1.2.3.4" bus2="BT808631.1.2.3.4" linecode="74_4" length=0.039340000 units=km
New "Line.SBT_35252" phases=4 bus1="BT808611.1.2.3.4" bus2="BT808621.1.2.3.4" linecode="74_4" length=0.039340000 units=km
New "Line.SBT_34901" phases=4 bus1="BT806291.1.2.3.4" bus2="BT803391.1.2.3.4" linecode="74_4" length=0.038410000 units=km
New "Line.SBT_34880" phases=4 bus1="BT85891.1.2.3.4" bus2="BT806171.1.2.3.4" linecode="73_4" length=0.071090000 units=km
New "Line.SBT_34881" phases=4 bus1="BT806171.1.2.3.4" bus2="ET3_3392.1.2.3.4" linecode="73_4" length=0.046110000 units=km
New "Line.SBT_34647" phases=4 bus1="BT803511.1.2.3.4" bus2="ET3_6179.1.2.3.4" linecode="74_4" length=0.041910000 units=km
New "Line.SBT_34648" phases=4 bus1="BT803521.1.2.3.4" bus2="BT803511.1.2.3.4" linecode="74_4" length=0.050670000 units=km
New "Line.SBT_34649" phases=4 bus1="BT803531.1.2.3.4" bus2="BT803521.1.2.3.4" linecode="74_4" length=0.043320000 units=km
New "Line.SBT_34650" phases=4 bus1="BT803541.1.2.3.4" bus2="BT803531.1.2.3.4" linecode="74_4" length=0.038240000 units=km
New "Line.SBT_34651" phases=4 bus1="BT803551.1.2.3.4" bus2="BT803541.1.2.3.4" linecode="74_4" length=0.030180000 units=km
New "Line.SBT_34652" phases=4 bus1="BT803552.1.2.3.4" bus2="BT803561.1.2.3.4" linecode="74_4" length=0.039510000 units=km
New "Line.SBT_34653" phases=4 bus1="BT803561.1.2.3.4" bus2="BT83852.1.2.3.4" linecode="74_4" length=0.038870000 units=km
New "Line.SBT_34654" phases=4 bus1="BT803571.1.2.3.4" bus2="BT803581.1.2.3.4" linecode="74_4" length=0.042430000 units=km
New "Line.SBT_34655" phases=4 bus1="BT803581.1.2.3.4" bus2="BT803591.1.2.3.4" linecode="74_4" length=0.038940000 units=km
New "Line.SBT_34656" phases=4 bus1="BT803591.1.2.3.4" bus2="BT803381.1.2.3.4" linecode="74_4" length=0.027300000 units=km
New "Line.SBT_34657" phases=4 bus1="BT803611.1.2.3.4" bus2="BT803431.1.2.3.4" linecode="74_4" length=0.043350000 units=km
New "Line.SBT_34660" phases=4 bus1="BT803651.1.2.3.4" bus2="BT803641.1.2.3.4" linecode="74_4" length=0.034160000 units=km
New "Line.SBT_34661" phases=4 bus1="BT803641.1.2.3.4" bus2="BT756801.1.2.3.4" linecode="74_4" length=0.027400000 units=km
New "Line.SBT_34622" phases=4 bus1="BT83902.1.2.3.4" bus2="BT708511.1.2.3.4" linecode="74_4" length=0.043000000 units=km
New "Line.SBT_34624" phases=4 bus1="BT84981.1.2.3.4" bus2="BT803441.1.2.3.4" linecode="74_4" length=0.028750000 units=km
New "Line.SBT_34625" phases=4 bus1="BT103941.1.2.3.4" bus2="BT803461.1.2.3.4" linecode="74_4" length=0.031470000 units=km
New "Line.SBT_34626" phases=4 bus1="BT103964.1.2.3.4" bus2="BT699991.1.2.3.4" linecode="74_4" length=0.029940000 units=km
New "Line.SBT_34627" phases=4 bus1="BT109542.1.2.3.4" bus2="BT803361.1.2.3.4" linecode="74_4" length=0.024460000 units=km
New "Line.SBT_34628" phases=4 bus1="BT699981.1.2.3.4" bus2="BT83902.1.2.3.4" linecode="74_4" length=0.028340000 units=km
New "Line.SBT_34629" phases=4 bus1="BT699991.1.2.3.4" bus2="BT699981.1.2.3.4" linecode="74_4" length=0.033540000 units=km
New "Line.SBT_34630" phases=4 bus1="BT708511.1.2.3.4" bus2="BT803491.1.2.3.4" linecode="74_4" length=0.026320000 units=km
New "Line.SBT_34632" phases=4 bus1="BT803361.1.2.3.4" bus2="ET3_115.1.2.3.4" linecode="74_4" length=0.037370000 units=km
New "Line.SBT_34635" phases=4 bus1="BT803391.1.2.3.4" bus2="BT803401.1.2.3.4" linecode="74_4" length=0.036250000 units=km
New "Line.SBT_34636" phases=4 bus1="BT803401.1.2.3.4" bus2="BT803411.1.2.3.4" linecode="74_4" length=0.035110000 units=km
New "Line.SBT_34637" phases=4 bus1="BT803411.1.2.3.4" bus2="BT803611.1.2.3.4" linecode="74_4" length=0.026980000 units=km
New "Line.SBT_34638" phases=4 bus1="BT803431.1.2.3.4" bus2="BT803441.1.2.3.4" linecode="74_4" length=0.035730000 units=km
New "Line.SBT_34639" phases=4 bus1="BT803441.1.2.3.4" bus2="ET3_114.1.2.3.4" linecode="74_4" length=0.046850000 units=km
New "Line.SBT_34641" phases=4 bus1="BT803461.1.2.3.4" bus2="ET3_114.1.2.3.4" linecode="74_4" length=0.056970000 units=km
New "Line.SBT_34642" phases=4 bus1="BT803471.1.2.3.4" bus2="BT803461.1.2.3.4" linecode="74_4" length=0.040130000 units=km
New "Line.SBT_34643" phases=4 bus1="BT803472.1.2.3.4" bus2="BT803481.1.2.3.4" linecode="74_4" length=0.048640000 units=km
New "Line.SBT_34644" phases=4 bus1="BT803481.1.2.3.4" bus2="BT103964.1.2.3.4" linecode="74_4" length=0.046610000 units=km
New "Line.SBT_34645" phases=4 bus1="BT803491.1.2.3.4" bus2="ET3_6179.1.2.3.4" linecode="74_4" length=0.046360000 units=km
New "Line.SBT_34618" phases=4 bus1="BT83821.1.2.3.4" bus2="BT803591.1.2.3.4" linecode="97_4" length=0.065580000 units=km
New "Line.SBT_34619" phases=4 bus1="BT83831.1.2.3.4" bus2="BT83821.1.2.3.4" linecode="97_4" length=0.068070000 units=km
New "Line.SBT_34620" phases=4 bus1="BT83852.1.2.3.4" bus2="BT803571.1.2.3.4" linecode="74_4" length=0.055280000 units=km
New "Line.SBT_34621" phases=4 bus1="BT83871.1.2.3.4" bus2="BT803552.1.2.3.4" linecode="74_4" length=0.053670000 units=km
New "Line.SBT_34332" phases=4 bus1="BT799681.1.2.3.4" bus2="BT267532.1.2.3.4" linecode="74_4" length=0.025180000 units=km
New "Line.SBT_34333" phases=4 bus1="BT799691.1.2.3.4" bus2="BT799681.1.2.3.4" linecode="74_4" length=0.030680000 units=km
New "Line.SBT_34334" phases=4 bus1="BT799701.1.2.3.4" bus2="BT799691.1.2.3.4" linecode="74_4" length=0.031250000 units=km
New "Line.SBT_34335" phases=4 bus1="BT799711.1.2.3.4" bus2="BT799701.1.2.3.4" linecode="74_4" length=0.027660000 units=km
New "Line.SBT_34331" phases=4 bus1="BT787191.1.2.3.4" bus2="BT799681.1.2.3.4" linecode="74_4" length=0.031550000 units=km
New "Line.SBT_33535" phases=4 bus1="BT792261.1.2.3.4" bus2="BT792441.1.2.3.4" linecode="74_4" length=0.011900000 units=km
New "Line.SBT_33537" phases=4 bus1="BT792281.1.2.3.4" bus2="BT792441.1.2.3.4" linecode="74_4" length=0.027120000 units=km
New "Line.SBT_33538" phases=4 bus1="BT792291.1.2.3.4" bus2="BT792281.1.2.3.4" linecode="74_4" length=0.040120000 units=km
New "Line.SBT_33539" phases=4 bus1="BT792301.1.2.3.4" bus2="BT792441.1.2.3.4" linecode="74_4" length=0.018230000 units=km
New "Line.SBT_33540" phases=4 bus1="BT792311.1.2.3.4" bus2="BT792301.1.2.3.4" linecode="74_4" length=0.040210000 units=km
New "Line.SBT_33541" phases=4 bus1="BT792321.1.2.3.4" bus2="BT792311.1.2.3.4" linecode="74_4" length=0.041120000 units=km
New "Line.SBT_33542" phases=4 bus1="BT792331.1.2.3.4" bus2="BT792321.1.2.3.4" linecode="74_4" length=0.027080000 units=km
New "Line.SBT_33543" phases=4 bus1="BT792341.1.2.3.4" bus2="ET3_6086.1.2.3.4" linecode="74_4" length=0.038120000 units=km
New "Line.SBT_33544" phases=4 bus1="BT792351.1.2.3.4" bus2="BT792431.1.2.3.4" linecode="74_4" length=0.033010000 units=km
New "Line.SBT_33545" phases=4 bus1="BT792361.1.2.3.4" bus2="BT792431.1.2.3.4" linecode="74_4" length=0.028400000 units=km
New "Line.SBT_33546" phases=4 bus1="BT792371.1.2.3.4" bus2="BT792361.1.2.3.4" linecode="74_4" length=0.040120000 units=km
New "Line.SBT_33547" phases=4 bus1="BT792381.1.2.3.4" bus2="BT792431.1.2.3.4" linecode="74_4" length=0.016900000 units=km
New "Line.SBT_33548" phases=4 bus1="BT792391.1.2.3.4" bus2="BT792381.1.2.3.4" linecode="74_4" length=0.027080000 units=km
New "Line.SBT_33549" phases=4 bus1="BT792401.1.2.3.4" bus2="BT792351.1.2.3.4" linecode="74_4" length=0.043190000 units=km
New "Line.SBT_33550" phases=4 bus1="BT792411.1.2.3.4" bus2="BT792401.1.2.3.4" linecode="74_4" length=0.029170000 units=km
New "Line.SBT_33551" phases=4 bus1="BT792421.1.2.3.4" bus2="BT792411.1.2.3.4" linecode="74_4" length=0.039220000 units=km
New "Line.SBT_33552" phases=4 bus1="BT792431.1.2.3.4" bus2="BT792341.1.2.3.4" linecode="74_4" length=0.010190000 units=km
New "Line.SBT_33553" phases=4 bus1="BT792441.1.2.3.4" bus2="ET3_6086.1.2.3.4" linecode="74_4" length=0.030360000 units=km
New "Line.SBT_33554" phases=4 bus1="BT792451.1.2.3.4" bus2="BT792211.1.2.3.4" linecode="74_4" length=0.030710000 units=km
New "Line.SBT_33524" phases=4 bus1="BT683851.1.2.3.4" bus2="BT684081.1.2.3.4" linecode="74_4" length=0.015930000 units=km
New "Line.SBT_33523" phases=4 bus1="BT683821.1.2.3.4" bus2="BT684081.1.2.3.4" linecode="74_4" length=0.030120000 units=km
New "Line.SBT_33525" phases=4 bus1="BT684081.1.2.3.4" bus2="BT683841.1.2.3.4" linecode="74_4" length=0.009970000 units=km
New "Line.SBT_33526" phases=4 bus1="BT792171.1.2.3.4" bus2="BT683801.1.2.3.4" linecode="74_4" length=0.044430000 units=km
New "Line.SBT_33527" phases=4 bus1="BT792181.1.2.3.4" bus2="BT683811.1.2.3.4" linecode="74_4" length=0.023210000 units=km
New "Line.SBT_33528" phases=4 bus1="BT792191.1.2.3.4" bus2="BT792181.1.2.3.4" linecode="74_4" length=0.038360000 units=km
New "Line.SBT_33529" phases=4 bus1="BT792201.1.2.3.4" bus2="BT792451.1.2.3.4" linecode="74_4" length=0.013510000 units=km
New "Line.SBT_33530" phases=4 bus1="BT792211.1.2.3.4" bus2="BT792261.1.2.3.4" linecode="74_4" length=0.033260000 units=km
New "Line.SBT_33531" phases=4 bus1="BT792221.1.2.3.4" bus2="BT792451.1.2.3.4" linecode="74_4" length=0.026910000 units=km
New "Line.SBT_33532" phases=4 bus1="BT792231.1.2.3.4" bus2="BT792221.1.2.3.4" linecode="74_4" length=0.038220000 units=km
New "Line.SBT_33533" phases=4 bus1="BT792241.1.2.3.4" bus2="BT792451.1.2.3.4" linecode="74_4" length=0.010220000 units=km
New "Line.SBT_33534" phases=4 bus1="BT792251.1.2.3.4" bus2="BT792241.1.2.3.4" linecode="74_4" length=0.033140000 units=km
New "Line.SBT_33497" phases=4 bus1="BT131282.1.2.3.4" bus2="BT131291.1.2.3.4" linecode="73_4" length=0.063560000 units=km
New "Line.SBT_33498" phases=4 bus1="BT131291.1.2.3.4" bus2="BT131301.1.2.3.4" linecode="73_4" length=0.056290000 units=km
New "Line.SBT_33499" phases=4 bus1="BT131301.1.2.3.4" bus2="BT714991.1.2.3.4" linecode="73_4" length=0.037000000 units=km
New "Line.SBT_33501" phases=4 bus1="BT714991.1.2.3.4" bus2="BT715002.1.2.3.4" linecode="73_4" length=0.050220000 units=km
New "Line.SBT_33502" phases=4 bus1="BT715002.1.2.3.4" bus2="ET3_6094.1.2.3.4" linecode="74_4" length=0.018120000 units=km
New "Line.SBT_33391" phases=4 bus1="BT791341.1.2.3.4" bus2="BT414691.1.2.3.4" linecode="73_4" length=0.019010000 units=km
New "Line.SBT_33403" phases=4 bus1="BT791381.1.2.3.4" bus2="BT791391.1.2.3.4" linecode="74_4" length=0.039120000 units=km
New "Line.SBT_33404" phases=4 bus1="BT791391.1.2.3.4" bus2="BT791401.1.2.3.4" linecode="74_4" length=0.028480000 units=km
New "Line.SBT_33405" phases=4 bus1="BT791401.1.2.3.4" bus2="BT692941.1.2.3.4" linecode="74_4" length=0.029070000 units=km
New "Line.SBT_33224" phases=4 bus1="BT789691.1.2.3.4" bus2="BT679542.1.2.3.4" linecode="73_4" length=0.076800000 units=km
New "Line.SBT_33225" phases=4 bus1="BT789701.1.2.3.4" bus2="BT789691.1.2.3.4" linecode="73_4" length=0.089990000 units=km
New "Line.SBT_33006" phases=4 bus1="BT787221.1.2.3.4" bus2="BT787181.1.2.3.4" linecode="73_4" length=0.044380000 units=km
New "Line.SBT_33007" phases=4 bus1="BT787231.1.2.3.4" bus2="ET3_5030.1.2.3.4" linecode="74_4" length=0.040170000 units=km
New "Line.SBT_33008" phases=4 bus1="BT787241.1.2.3.4" bus2="BT92822.1.2.3.4" linecode="74_4" length=0.031710000 units=km
New "Line.SBT_33009" phases=4 bus1="BT787242.1.2.3.4" bus2="BT787361.1.2.3.4" linecode="74_4" length=0.054250000 units=km
New "Line.SBT_33010" phases=4 bus1="BT787252.1.2.3.4" bus2="BT787261.1.2.3.4" linecode="74_4" length=0.029760000 units=km
New "Line.SBT_33011" phases=4 bus1="BT787261.1.2.3.4" bus2="BT787271.1.2.3.4" linecode="74_4" length=0.035380000 units=km
New "Line.SBT_33012" phases=4 bus1="BT787271.1.2.3.4" bus2="BT92802.1.2.3.4" linecode="74_4" length=0.036190000 units=km
New "Line.SBT_33015" phases=4 bus1="BT787301.1.2.3.4" bus2="BT787351.1.2.3.4" linecode="74_4" length=0.005570000 units=km
New "Line.SBT_33016" phases=4 bus1="BT787311.1.2.3.4" bus2="BT787351.1.2.3.4" linecode="74_4" length=0.005850000 units=km
New "Line.SBT_33017" phases=4 bus1="BT787321.1.2.3.4" bus2="BT787351.1.2.3.4" linecode="74_4" length=0.013060000 units=km
New "Line.SBT_33018" phases=4 bus1="BT787331.1.2.3.4" bus2="BT787321.1.2.3.4" linecode="74_4" length=0.030160000 units=km
New "Line.SBT_33019" phases=4 bus1="BT787341.1.2.3.4" bus2="BT787331.1.2.3.4" linecode="74_4" length=0.017770000 units=km
New "Line.SBT_33020" phases=4 bus1="BT787351.1.2.3.4" bus2="ET3_5969.1.2.3.4" linecode="74_4" length=0.038550000 units=km
New "Line.SBT_33021" phases=4 bus1="BT787361.1.2.3.4" bus2="BT267571.1.2.3.4" linecode="74_4" length=0.043050000 units=km
New "Line.SBT_33022" phases=4 bus1="BT787371.1.2.3.4" bus2="BT267551.1.2.3.4" linecode="74_4" length=0.037230000 units=km
New "Line.SBT_32986" phases=4 bus1="BT92802.1.2.3.4" bus2="ET3_1764.1.2.3.4" linecode="74_4" length=0.045650000 units=km
New "Line.SBT_32987" phases=4 bus1="BT92822.1.2.3.4" bus2="BT787252.1.2.3.4" linecode="74_4" length=0.040380000 units=km
New "Line.SBT_32988" phases=2 bus1="BT92831.1.4" bus2="BT787252.1.4" linecode="60_2" length=0.015710000 units=km
New "Line.SBT_32989" phases=3 bus1="BT92871.1.2.4" bus2="BT787221.1.2.4" linecode="59_3" length=0.044450000 units=km
New "Line.SBT_32990" phases=4 bus1="BT104771.1.2.3.4" bus2="BT111311.1.2.3.4" linecode="74_4" length=0.015760000 units=km
New "Line.SBT_32991" phases=4 bus1="BT267532.1.2.3.4" bus2="BT787201.1.2.3.4" linecode="74_4" length=0.038770000 units=km
New "Line.SBT_32992" phases=4 bus1="BT267542.1.2.3.4" bus2="BT787371.1.2.3.4" linecode="74_4" length=0.037110000 units=km
New "Line.SBT_32993" phases=4 bus1="BT267543.1.2.3.4" bus2="BT787191.1.2.3.4" linecode="74_4" length=0.047900000 units=km
New "Line.SBT_32994" phases=4 bus1="BT267551.1.2.3.4" bus2="ET3_5030.1.2.3.4" linecode="74_4" length=0.035890000 units=km
New "Line.SBT_32995" phases=4 bus1="BT267571.1.2.3.4" bus2="BT787231.1.2.3.4" linecode="74_4" length=0.038040000 units=km
New "Line.SBT_32996" phases=4 bus1="BT327161.1.2.3.4" bus2="ET3_5969.1.2.3.4" linecode="74_4" length=0.028830000 units=km
New "Line.SBT_32997" phases=4 bus1="BT327171.1.2.3.4" bus2="BT327161.1.2.3.4" linecode="74_4" length=0.032620000 units=km
New "Line.SBT_32998" phases=4 bus1="BT327181.1.2.3.4" bus2="BT327171.1.2.3.4" linecode="74_4" length=0.019030000 units=km
New "Line.SBT_32999" phases=4 bus1="BT327191.1.2.3.4" bus2="BT327181.1.2.3.4" linecode="74_4" length=0.029070000 units=km
New "Line.SBT_33000" phases=4 bus1="BT327201.1.2.3.4" bus2="BT327191.1.2.3.4" linecode="74_4" length=0.027170000 units=km
New "Line.SBT_33001" phases=4 bus1="BT377971.1.2.3.4" bus2="BT327171.1.2.3.4" linecode="74_4" length=0.033390000 units=km
New "Line.SBT_33002" phases=4 bus1="BT787181.1.2.3.4" bus2="ET3_120.1.2.3.4" linecode="97_4" length=0.045190000 units=km
New "Line.SBT_33004" phases=4 bus1="BT787201.1.2.3.4" bus2="BT787211.1.2.3.4" linecode="74_4" length=0.039580000 units=km
New "Line.SBT_33005" phases=4 bus1="BT787211.1.2.3.4" bus2="BT787221.1.2.3.4" linecode="74_4" length=0.055400000 units=km
New "Line.SBT_32983" phases=4 bus1="BT92782.1.2.3.4" bus2="BT104771.1.2.3.4" linecode="74_4" length=0.036470000 units=km
New "Line.SBT_32984" phases=4 bus1="BT92783.1.2.3.4" bus2="ET3_1764.1.2.3.4" linecode="74_4" length=0.058020000 units=km
New "Line.SBT_32897" phases=2 bus1="BT123821.1.4" bus2="BT786042.1.4" linecode="60_2" length=0.078840000 units=km
New "Line.SBT_32898" phases=2 bus1="BT786011.1.4" bus2="BT786021.1.4" linecode="62_2" length=0.042550000 units=km
New "Line.SBT_32899" phases=2 bus1="BT786021.1.4" bus2="ET3_6009.1.4" linecode="62_2" length=0.049780000 units=km
New "Line.SBT_32901" phases=3 bus1="BT786042.1.2.4" bus2="ET3_6009.1.2.4" linecode="59_3" length=0.057290000 units=km
New "Line.SBT_32489" phases=2 bus1="BT781041.1.4" bus2="BT756852.1.4" linecode="108_2" length=0.021040000 units=km
New "Line.SBT_32490" phases=4 bus1="BT109451.1.2.3.4" bus2="BT680002.1.2.3.4" linecode="74_4" length=0.037520000 units=km
New "Line.SBT_32315" phases=3 bus1="BT730691.1.2.4" bus2="ET3_5942.1.2.4" linecode="59_3" length=0.049480000 units=km
New "Line.SBT_32317" phases=2 bus1="BT327401.1.4" bus2="BT730701.1.4" linecode="102_2" length=0.028000000 units=km
New "Line.SBT_32316" phases=3 bus1="BT730701.1.2.4" bus2="BT730691.1.2.4" linecode="59_3" length=0.058820000 units=km
New "Line.SBT_32318" phases=2 bus1="BT327411.1.4" bus2="BT327401.1.4" linecode="102_2" length=0.041110000 units=km
New "Line.SBT_32248" phases=4 bus1="BT20532.1.2.3.4" bus2="ET3_5947.1.2.3.4" linecode="74_4" length=0.032230000 units=km
New "Line.SBT_32249" phases=4 bus1="BT20541.1.2.3.4" bus2="BT20532.1.2.3.4" linecode="74_4" length=0.041200000 units=km
New "Line.SBT_32236" phases=4 bus1="BT778711.1.2.3.4" bus2="BT755531.1.2.3.4" linecode="73_4" length=0.063550000 units=km
New "Line.SBT_32202" phases=4 bus1="BT778471.1.2.3.4" bus2="BT144741.1.2.3.4" linecode="97_4" length=0.075280000 units=km
New "Line.SBT_32203" phases=4 bus1="BT70721.1.2.3.4" bus2="BT778481.1.2.3.4" linecode="73_4" length=0.053860000 units=km
New "Line.SBT_32204" phases=4 bus1="BT778481.1.2.3.4" bus2="BT645021.1.2.3.4" linecode="73_4" length=0.045000000 units=km
New "Line.SBT_32149" phases=3 bus1="BT104761.1.2.4" bus2="BT149491.1.2.4" linecode="44_3" length=0.091760000 units=km
New "Line.SBT_32150" phases=3 bus1="BT104762.1.2.4" bus2="ET3_1431.1.2.4" linecode="59_3" length=0.090380000 units=km
New "Line.SBT_32151" phases=2 bus1="BT149471.1.4" bus2="BT149481.1.4" linecode="60_2" length=0.054450000 units=km
New "Line.SBT_32152" phases=3 bus1="BT149481.1.2.4" bus2="ET3_5929.1.2.4" linecode="91_3" length=0.085750000 units=km
New "Line.SBT_32153" phases=3 bus1="BT149491.1.2.4" bus2="BT149481.1.2.4" linecode="44_3" length=0.082540000 units=km
New "Line.SBT_32154" phases=3 bus1="BT149521.1.2.4" bus2="BT675711.1.2.4" linecode="59_3" length=0.045610000 units=km
New "Line.SBT_32155" phases=3 bus1="BT149531.1.2.4" bus2="BT778281.1.2.4" linecode="59_3" length=0.049440000 units=km
New "Line.SBT_32157" phases=3 bus1="BT675711.1.2.4" bus2="ET3_1431.1.2.4" linecode="59_3" length=0.034710000 units=km
New "Line.SBT_32158" phases=3 bus1="BT778261.1.2.4" bus2="BT675711.1.2.4" linecode="59_3" length=0.025580000 units=km
New "Line.SBT_32160" phases=3 bus1="BT778281.1.2.4" bus2="BT149521.1.2.4" linecode="59_3" length=0.052850000 units=km
New "Line.SBT_31847" phases=4 bus1="BT773001.1.2.3.4" bus2="BT772991.1.2.3.4" linecode="74_4" length=0.046220000 units=km
New "Line.SBT_31848" phases=4 bus1="BT773011.1.2.3.4" bus2="BT773001.1.2.3.4" linecode="74_4" length=0.021180000 units=km
New "Line.SBT_31849" phases=4 bus1="BT773021.1.2.3.4" bus2="BT773011.1.2.3.4" linecode="74_4" length=0.025080000 units=km
New "Line.SBT_31850" phases=4 bus1="BT773031.1.2.3.4" bus2="BT773021.1.2.3.4" linecode="74_4" length=0.027360000 units=km
New "Line.SBT_31851" phases=4 bus1="BT773041.1.2.3.4" bus2="BT773031.1.2.3.4" linecode="74_4" length=0.019830000 units=km
New "Line.SBT_31852" phases=4 bus1="BT773051.1.2.3.4" bus2="BT773011.1.2.3.4" linecode="74_4" length=0.042270000 units=km
New "Line.SBT_31853" phases=4 bus1="BT773061.1.2.3.4" bus2="BT773051.1.2.3.4" linecode="74_4" length=0.042920000 units=km
New "Line.SBT_31854" phases=4 bus1="BT773071.1.2.3.4" bus2="BT773061.1.2.3.4" linecode="74_4" length=0.036690000 units=km
New "Line.SBT_31843" phases=4 bus1="BT772961.1.2.3.4" bus2="BT680201.1.2.3.4" linecode="74_4" length=0.029420000 units=km
New "Line.SBT_31844" phases=4 bus1="BT772971.1.2.3.4" bus2="BT772961.1.2.3.4" linecode="74_4" length=0.041650000 units=km
New "Line.SBT_31845" phases=4 bus1="BT772981.1.2.3.4" bus2="BT772971.1.2.3.4" linecode="74_4" length=0.023110000 units=km
New "Line.SBT_31846" phases=4 bus1="BT772991.1.2.3.4" bus2="BT772981.1.2.3.4" linecode="74_4" length=0.037040000 units=km
New "Line.SBT_31793" phases=4 bus1="BT6901.1.2.3.4" bus2="BT6923.1.2.3.4" linecode="97_4" length=0.069460000 units=km
New "Line.SBT_31791" phases=4 bus1="BT6931.1.2.3.4" bus2="BT6923.1.2.3.4" linecode="97_4" length=0.047010000 units=km
New "Line.SBT_31792" phases=4 bus1="BT6923.1.2.3.4" bus2="ET3_102.1.2.3.4" linecode="97_4" length=0.065490000 units=km
...

New "Line.SBT_24941" phases=4 bus1="BT111312.1.2.3.4" bus2="ET3_1429.1.2.3.4" linecode="75_4" length=0.034370000 units=km
New "Line.SBT_24750" phases=4 bus1="BT549491.1.2.3.4" bus2="ET3_2010.1.2.3.4" linecode="75_4" length=0.052500000 units=km
New "Line.SBT_24150" phases=4 bus1="BT71671.1.2.3.4" bus2="ET21_2906.1.2.3.4" linecode="73_4" length=0.076420000 units=km
New "Line.SBT_24124" phases=4 bus1="BT7501.1.2.3.4" bus2="BT71451.1.2.3.4" linecode="73_4" length=0.049930000 units=km
New "Line.SBT_24058" phases=4 bus1="BT104991.1.2.3.4" bus2="BT105001.1.2.3.4" linecode="73_4" length=0.074710000 units=km
New "Line.SBT_24059" phases=4 bus1="BT10231.1.2.3.4" bus2="ET21_4811.1.2.3.4" linecode="73_4" length=0.100900000 units=km
New "Line.SBT_24071" phases=4 bus1="BT333031.1.2.3.4" bus2="ET21_1202.1.2.3.4" linecode="73_4" length=0.076240000 units=km
New "Line.SBT_24017" phases=4 bus1="BT376381.1.2.3.4" bus2="ET3_4244.1.2.3.4" linecode="73_4" length=0.023540000 units=km
New "Line.SBT_23866" phases=4 bus1="BT71471.1.2.3.4" bus2="BT71481.1.2.3.4" linecode="73_4" length=0.056080000 units=km
New "Line.SBT_23846" phases=4 bus1="BT71461.1.2.3.4" bus2="BT71471.1.2.3.4" linecode="73_4" length=0.083870000 units=km
New "Line.SBT_23820" phases=4 bus1="BT105033.1.2.3.4" bus2="ET21_325.1.2.3.4" linecode="73_4" length=0.096100000 units=km
New "Line.SBT_23735" phases=3 bus1="BT362771.1.2.4" bus2="BT362761.1.2.4" linecode="44_3" length=0.266100000 units=km
New "Line.SBT_23600" phases=4 bus1="BT27711.1.2.3.4" bus2="ET21_1686.1.2.3.4" linecode="73_4" length=0.075030000 units=km
New "Line.SBT_23601" phases=4 bus1="BT27701.1.2.3.4" bus2="BT27711.1.2.3.4" linecode="73_4" length=0.053150000 units=km
New "Line.SBT_23602" phases=4 bus1="BT27681.1.2.3.4" bus2="BT27691.1.2.3.4" linecode="73_4" length=0.066600000 units=km
New "Line.SBT_23610" phases=3 bus1="BT362761.1.2.4" bus2="ET21_1886.1.2.4" linecode="44_3" length=0.056440000 units=km
New "Line.SBT_23172" phases=4 bus1="BT235261.1.2.3.4" bus2="BT125401.1.2.3.4" linecode="97_4" length=0.064710000 units=km
New "Line.SBT_23110" phases=4 bus1="BT695741.1.2.3.4" bus2="BT143891.1.2.3.4" linecode="74_4" length=0.040960000 units=km
New "Line.SBT_23111" phases=4 bus1="BT695761.1.2.3.4" bus2="BT124971.1.2.3.4" linecode="74_4" length=0.038120000 units=km
New "Line.SBT_22930" phases=4 bus1="BT70741.1.2.3.4" bus2="BT70731.1.2.3.4" linecode="73_4" length=0.049400000 units=km
New "Line.SBT_22948" phases=4 bus1="BT615831.1.2.3.4" bus2="BT615861.1.2.3.4" linecode="58_4" length=0.031960000 units=km
New "Line.SBT_22928" phases=4 bus1="BT70661.1.2.3.4" bus2="ET21_143.1.2.3.4" linecode="73_4" length=0.083820000 units=km
New "Line.SBT_22929" phases=4 bus1="BT70731.1.2.3.4" bus2="BT70681.1.2.3.4" linecode="73_4" length=0.071550000 units=km
New "Line.SBT_22716" phases=4 bus1="BT687671.1.2.3.4" bus2="BT687661.1.2.3.4" linecode="73_4" length=0.069720000 units=km
New "Line.SBT_22578" phases=4 bus1="BT17501.1.2.3.4" bus2="ET3_3277.1.2.3.4" linecode="73_4" length=0.066760000 units=km
New "Line.SBT_22188" phases=2 bus1="BT85911.1.4" bus2="BT85901.1.4" linecode="60_2" length=0.106020000 units=km
New "Line.SBT_22191" phases=2 bus1="BT85901.1.4" bus2="ET3_3392.1.4" linecode="60_2" length=0.059030000 units=km
New "Line.SBT_21655" phases=4 bus1="BT150051.1.2.3.4" bus2="BT150041.1.2.3.4" linecode="75_4" length=0.031240000 units=km
New "Line.SBT_21587" phases=4 bus1="BT149981.1.2.3.4" bus2="BT149991.1.2.3.4" linecode="75_4" length=0.027590000 units=km
New "Line.SBT_21589" phases=4 bus1="BT143981.1.2.3.4" bus2="BT145101.1.2.3.4" linecode="75_4" length=0.013000000 units=km
New "Line.SBT_21592" phases=4 bus1="BT143971.1.2.3.4" bus2="BT143981.1.2.3.4" linecode="75_4" length=0.027240000 units=km
New "Line.SBT_21570" phases=4 bus1="BT143961.1.2.3.4" bus2="BT143971.1.2.3.4" linecode="75_4" length=0.022340000 units=km
New "Line.SBT_21477" phases=4 bus1="BT109591.1.2.3.4" bus2="BT109601.1.2.3.4" linecode="73_4" length=0.072240000 units=km
New "Line.SBT_21473" phases=4 bus1="BT89871.1.2.3.4" bus2="BT85411.1.2.3.4" linecode="73_4" length=0.053370000 units=km
New "Line.SBT_21474" phases=4 bus1="BT445031.1.2.3.4" bus2="BT89871.1.2.3.4" linecode="73_4" length=0.068150000 units=km
New "Line.SBT_21288" phases=4 bus1="BT644301.1.2.3.4" bus2="BT531941.1.2.3.4" linecode="73_4" length=0.056090000 units=km
New "Line.SBT_21144" phases=4 bus1="BT124981.1.2.3.4" bus2="BT145121.1.2.3.4" linecode="75_4" length=0.008940000 units=km
New "Line.SBT_21145" phases=4 bus1="BT143891.1.2.3.4" bus2="BT145091.1.2.3.4" linecode="75_4" length=0.014760000 units=km
New "Line.SBT_21146" phases=4 bus1="BT143901.1.2.3.4" bus2="BT145091.1.2.3.4" linecode="75_4" length=0.008540000 units=km
New "Line.SBT_21115" phases=4 bus1="BT32341.1.2.3.4" bus2="ET3_1880.1.2.3.4" linecode="97_4" length=0.041110000 units=km
New "Line.SBT_21124" phases=3 bus1="BT32401.1.2.4" bus2="BT32391.1.2.4" linecode="44_3" length=0.062370000 units=km
New "Line.SBT_21125" phases=4 bus1="BT109421.1.2.3.4" bus2="BT109411.1.2.3.4" linecode="75_4" length=0.043860000 units=km
New "Line.SBT_21126" phases=4 bus1="BT109431.1.2.3.4" bus2="BT109421.1.2.3.4" linecode="75_4" length=0.046530000 units=km
New "Line.SBT_21130" phases=4 bus1="BT125001.1.2.3.4" bus2="ET3_1903.1.2.3.4" linecode="75_4" length=0.025940000 units=km
New "Line.SBT_21087" phases=3 bus1="BT144041.1.2.4" bus2="BT133601.1.2.4" linecode="76_3" length=0.025810000 units=km
New "Line.SBT_21091" phases=4 bus1="BT125061.1.2.3.4" bus2="BT125071.1.2.3.4" linecode="75_4" length=0.022470000 units=km
New "Line.SBT_21093" phases=4 bus1="BT150041.1.2.3.4" bus2="BT145171.1.2.3.4" linecode="75_4" length=0.015260000 units=km
New "Line.SBT_21065" phases=4 bus1="BT340381.1.2.3.4" bus2="BT71681.1.2.3.4" linecode="73_4" length=0.047800000 units=km
New "Line.SBT_21067" phases=4 bus1="BT71681.1.2.3.4" bus2="ET21_2906.1.2.3.4" linecode="73_4" length=0.058010000 units=km
New "Line.SBT_21008" phases=4 bus1="BT111272.1.2.3.4" bus2="BT111261.1.2.3.4" linecode="75_4" length=0.065150000 units=km
New "Line.SBT_21010" phases=2 bus1="BT124711.2.4" bus2="ET3_1619.2.4" linecode="60_2" length=0.090080000 units=km
New "Line.SBT_20971" phases=4 bus1="BT20521.1.2.3.4" bus2="ET3_101.1.2.3.4" linecode="75_4" length=0.071180000 units=km
New "Line.SBT_20937" phases=4 bus1="BT125071.1.2.3.4" bus2="BT143841.1.2.3.4" linecode="75_4" length=0.026930000 units=km
New "Line.SBT_20945" phases=4 bus1="BT143881.1.2.3.4" bus2="BT143871.1.2.3.4" linecode="75_4" length=0.030230000 units=km
New "Line.SBT_20906" phases=4 bus1="BT144681.1.2.3.4" bus2="ET3_5250.1.2.3.4" linecode="73_4" length=0.087090000 units=km
New "Line.SBT_20887" phases=4 bus1="BT126281.1.2.3.4" bus2="BT126291.1.2.3.4" linecode="92_4" length=0.060210000 units=km
New "Line.SBT_20850" phases=4 bus1="BT20571.1.2.3.4" bus2="ET3_5126.1.2.3.4" linecode="75_4" length=0.067070000 units=km
New "Line.SBT_20852" phases=4 bus1="BT126291.1.2.3.4" bus2="BT126301.1.2.3.4" linecode="92_4" length=0.056040000 units=km
New "Line.SBT_20857" phases=4 bus1="BT149771.1.2.3.4" bus2="BT146101.1.2.3.4" linecode="16_4" length=0.040710000 units=km
New "Line.SBT_20858" phases=4 bus1="BT132221.1.2.3.4" bus2="BT149801.1.2.3.4" linecode="16_4" length=0.078440000 units=km
New "Line.SBT_20859" phases=4 bus1="BT20501.1.2.3.4" bus2="ET3_101.1.2.3.4" linecode="73_4" length=0.042230000 units=km
New "Line.SBT_20822" phases=4 bus1="BT144081.1.2.3.4" bus2="BT144091.1.2.3.4" linecode="75_4" length=0.025550000 units=km
New "Line.SBT_20824" phases=4 bus1="BT144071.1.2.3.4" bus2="BT144081.1.2.3.4" linecode="75_4" length=0.026630000 units=km
New "Line.SBT_20816" phases=4 bus1="BT144091.1.2.3.4" bus2="BT145051.1.2.3.4" linecode="75_4" length=0.010000000 units=km
New "Line.SBT_20757" phases=4 bus1="BT123721.1.2.3.4" bus2="BT123711.1.2.3.4" linecode="97_4" length=0.096770000 units=km
New "Line.SBT_20759" phases=2 bus1="BT124791.1.4" bus2="BT124801.1.4" linecode="62_2" length=0.064330000 units=km
New "Line.SBT_20782" phases=4 bus1="BT32371.1.2.3.4" bus2="BT32361.1.2.3.4" linecode="75_4" length=0.059140000 units=km
New "Line.SBT_20783" phases=4 bus1="BT32381.1.2.3.4" bus2="BT32361.1.2.3.4" linecode="97_4" length=0.053710000 units=km
New "Line.SBT_20687" phases=4 bus1="BT572201.1.2.3.4" bus2="ET3_1904.1.2.3.4" linecode="75_4" length=0.014880000 units=km
New "Line.SBT_20688" phases=4 bus1="BT132341.1.2.3.4" bus2="BT572201.1.2.3.4" linecode="75_4" length=0.011190000 units=km
New "Line.SBT_20689" phases=4 bus1="BT143851.1.2.3.4" bus2="BT145131.1.2.3.4" linecode="75_4" length=0.018030000 units=km
New "Line.SBT_20694" phases=4 bus1="BT132361.1.2.3.4" bus2="BT132371.1.2.3.4" linecode="75_4" length=0.042440000 units=km
New "Line.SBT_20695" phases=4 bus1="BT132331.1.2.3.4" bus2="BT133671.1.2.3.4" linecode="75_4" length=0.023850000 units=km
New "Line.SBT_20698" phases=4 bus1="BT117881.1.2.3.4" bus2="ET3_108.1.2.3.4" linecode="73_4" length=0.063640000 units=km
New "Line.SBT_20666" phases=4 bus1="BT133671.1.2.3.4" bus2="BT132341.1.2.3.4" linecode="75_4" length=0.025810000 units=km
New "Line.SBT_20669" phases=4 bus1="BT114461.1.2.3.4" bus2="BT114451.1.2.3.4" linecode="73_4" length=0.070580000 units=km
New "Line.SBT_20670" phases=4 bus1="BT125481.1.2.3.4" bus2="ET3_250.1.2.3.4" linecode="97_4" length=0.057980000 units=km
New "Line.SBT_20639" phases=3 bus1="BT144061.1.2.4" bus2="BT144051.1.2.4" linecode="76_3" length=0.023850000 units=km
New "Line.SBT_20640" phases=2 bus1="BT23711.2.4" bus2="ET3_1907.2.4" linecode="60_2" length=0.101610000 units=km
New "Line.SBT_20655" phases=4 bus1="BT145001.1.2.3.4" bus2="BT144991.1.2.3.4" linecode="75_4" length=0.022470000 units=km
New "Line.SBT_20656" phases=4 bus1="BT125021.1.2.3.4" bus2="BT125011.1.2.3.4" linecode="75_4" length=0.024190000 units=km
New "Line.SBT_20611" phases=3 bus1="BT23761.1.2.4" bus2="ET3_389.1.2.4" linecode="59_3" length=0.056090000 units=km
New "Line.SBT_20612" phases=3 bus1="BT84191.1.2.4" bus2="BT219991.1.2.4" linecode="59_3" length=0.072950000 units=km
New "Line.SBT_20619" phases=4 bus1="BT20561.1.2.3.4" bus2="BT20571.1.2.3.4" linecode="75_4" length=0.063070000 units=km
New "Line.SBT_20590" phases=4 bus1="BT20551.1.2.3.4" bus2="BT20561.1.2.3.4" linecode="75_4" length=0.044010000 units=km
New "Line.SBT_20595" phases=4 bus1="BT117891.1.2.3.4" bus2="BT117881.1.2.3.4" linecode="73_4" length=0.058690000 units=km
New "Line.SBT_20596" phases=4 bus1="BT132231.1.2.3.4" bus2="BT91951.1.2.3.4" linecode="97_4" length=0.047540000 units=km
New "Line.SBT_20604" phases=4 bus1="BT146101.1.2.3.4" bus2="ET3_4005.1.2.3.4" linecode="16_4" length=0.095000000 units=km
New "Line.SBT_20610" phases=3 bus1="BT32241.1.2.4" bus2="BT144791.1.2.4" linecode="44_3" length=0.095050000 units=km
New "Line.SBT_20579" phases=2 bus1="BT98161.1.4" bus2="BT98151.1.4" linecode="60_2" length=0.063700000 units=km
New "Line.SBT_20477" phases=4 bus1="BT680191.1.2.3.4" bus2="BT680181.1.2.3.4" linecode="74_4" length=0.037130000 units=km
New "Line.SBT_20480" phases=4 bus1="BT680091.1.2.3.4" bus2="BT680191.1.2.3.4" linecode="74_4" length=0.037900000 units=km
New "Line.SBT_20460" phases=4 bus1="BT6041.1.2.3.4" bus2="BT6031.1.2.3.4" linecode="97_4" length=0.080890000 units=km
New "Line.SBT_20465" phases=4 bus1="BT295221.1.2.3.4" bus2="BT123741.1.2.3.4" linecode="97_4" length=0.036890000 units=km
New "Line.SBT_20466" phases=4 bus1="BT123771.1.2.3.4" bus2="BT123751.1.2.3.4" linecode="97_4" length=0.054040000 units=km
New "Line.SBT_20434" phases=4 bus1="BT22861.1.2.3.4" bus2="BT22871.1.2.3.4" linecode="73_4" length=0.073550000 units=km
New "Line.SBT_20435" phases=4 bus1="BT22891.1.2.3.4" bus2="BT22881.1.2.3.4" linecode="73_4" length=0.082290000 units=km
New "Line.SBT_20439" phases=4 bus1="BT357571.1.2.3.4" bus2="ET3_4244.1.2.3.4" linecode="97_4" length=0.059030000 units=km
New "Line.SBT_20440" phases=4 bus1="BT143011.1.2.3.4" bus2="BT126051.1.2.3.4" linecode="73_4" length=0.061220000 units=km
New "Line.SBT_20416" phases=2 bus1="BT148631.2.4" bus2="BT148621.2.4" linecode="60_2" length=0.081690000 units=km
New "Line.SBT_20350" phases=2 bus1="BT132651.1.4" bus2="BT147291.1.4" linecode="60_2" length=0.088540000 units=km
New "Line.SBT_20319" phases=4 bus1="BT101321.1.2.3.4" bus2="BT101311.1.2.3.4" linecode="97_4" length=0.060070000 units=km
New "Line.SBT_20320" phases=4 bus1="BT83771.1.2.3.4" bus2="BT101331.1.2.3.4" linecode="97_4" length=0.062170000 units=km
New "Line.SBT_20321" phases=4 bus1="BT32311.1.2.3.4" bus2="ET3_118.1.2.3.4" linecode="75_4" length=0.076120000 units=km
New "Line.SBT_20322" phases=4 bus1="BT83761.1.2.3.4" bus2="BT101321.1.2.3.4" linecode="97_4" length=0.060440000 units=km
New "Line.SBT_20323" phases=4 bus1="BT6061.1.2.3.4" bus2="BT6071.1.2.3.4" linecode="97_4" length=0.059140000 units=km
New "Line.SBT_20324" phases=4 bus1="BT6071.1.2.3.4" bus2="ET3_103.1.2.3.4" linecode="97_4" length=0.057870000 units=km
New "Line.SBT_20332" phases=2 bus1="BT108451.1.4" bus2="ET3_1430.1.4" linecode="60_2" length=0.119750000 units=km
New "Line.SBT_20333" phases=2 bus1="BT149351.1.4" bus2="BT149361.1.4" linecode="60_2" length=0.090800000 units=km
New "Line.SBT_20291" phases=4 bus1="BT101311.1.2.3.4" bus2="BT101301.1.2.3.4" linecode="97_4" length=0.079560000 units=km
New "Line.SBT_20292" phases=4 bus1="BT101331.1.2.3.4" bus2="BT83761.1.2.3.4" linecode="97_4" length=0.031020000 units=km
New "Line.SBT_20293" phases=4 bus1="BT92721.1.2.3.4" bus2="BT111421.1.2.3.4" linecode="97_4" length=0.033060000 units=km
New "Line.SBT_20301" phases=4 bus1="BT22871.1.2.3.4" bus2="ET3_104.1.2.3.4" linecode="75_4" length=0.073820000 units=km
New "Line.SBT_20275" phases=4 bus1="BT624481.1.2.3.4" bus2="BT126311.1.2.3.4" linecode="97_4" length=0.007310000 units=km
New "Line.SBT_20276" phases=4 bus1="BT148751.1.2.3.4" bus2="ET3_525.1.2.3.4" linecode="97_4" length=0.072110000 units=km
New "Line.SBT_20277" phases=4 bus1="BT148791.1.2.3.4" bus2="BT148781.1.2.3.4" linecode="97_4" length=0.061680000 units=km
New "Line.SBT_20278" phases=4 bus1="BT148801.1.2.3.4" bus2="BT148791.1.2.3.4" linecode="97_4" length=0.099300000 units=km
New "Line.SBT_20284" phases=3 bus1="BT148731.1.2.4" bus2="BT148721.1.2.4" linecode="44_3" length=0.104000000 units=km
New "Line.SBT_20226" phases=4 bus1="BT144761.1.2.3.4" bus2="ET3_316.1.2.3.4" linecode="97_4" length=0.076660000 units=km
New "Line.SBT_20228" phases=3 bus1="BT144791.1.2.4" bus2="BT144781.1.2.4" linecode="44_3" length=0.082430000 units=km
New "Line.SBT_20232" phases=4 bus1="BT6891.1.2.3.4" bus2="BT6881.1.2.3.4" linecode="97_4" length=0.074430000 units=km
New "Line.SBT_20187" phases=3 bus1="BT17541.1.2.4" bus2="ET3_2517.1.2.4" linecode="44_3" length=0.053760000 units=km
New "Line.SBT_20192" phases=4 bus1="BT111451.1.2.3.4" bus2="BT111441.1.2.3.4" linecode="97_4" length=0.039460000 units=km
New "Line.SBT_20195" phases=4 bus1="BT146081.1.2.3.4" bus2="ET3_424.1.2.3.4" linecode="97_4" length=0.051550000 units=km
New "Line.SBT_20155" phases=4 bus1="BT92931.1.2.3.4" bus2="ET3_2531.1.2.3.4" linecode="73_4" length=0.095350000 units=km
New "Line.SBT_20156" phases=4 bus1="BT143771.1.2.3.4" bus2="BT106321.1.2.3.4" linecode="73_4" length=0.063350000 units=km
New "Line.SBT_20164" phases=4 bus1="BT125391.1.2.3.4" bus2="ET3_105.1.2.3.4" linecode="97_4" length=0.069840000 units=km
New "Line.SBT_20174" phases=4 bus1="BT104921.1.2.3.4" bus2="ET3_113.1.2.3.4" linecode="97_4" length=0.043290000 units=km
New "Line.SBT_20175" phases=4 bus1="BT104981.1.2.3.4" bus2="BT104921.1.2.3.4" linecode="73_4" length=0.100660000 units=km
New "Line.SBT_20176" phases=4 bus1="BT104951.1.2.3.4" bus2="BT104941.1.2.3.4" linecode="97_4" length=0.056140000 units=km
New "Line.SBT_20177" phases=4 bus1="BT101301.1.2.3.4" bus2="ET3_117.1.2.3.4" linecode="73_4" length=0.042450000 units=km
New "Line.SBT_20144" phases=4 bus1="BT104961.1.2.3.4" bus2="BT104951.1.2.3.4" linecode="97_4" length=0.058000000 units=km
New "Line.SBT_20154" phases=3 bus1="BT23781.1.2.4" bus2="ET3_2518.1.2.4" linecode="59_3" length=0.078920000 units=km
New "Line.SBT_20093" phases=2 bus1="BT147291.1.4" bus2="BT147301.1.4" linecode="60_2" length=0.092970000 units=km
New "Line.SBT_20026" phases=4 bus1="BT111881.1.2.3.4" bus2="BT235261.1.2.3.4" linecode="97_4" length=0.061560000 units=km
New "Line.SBT_20032" phases=4 bus1="BT149001.1.2.3.4" bus2="ET3_2602.1.2.3.4" linecode="73_4" length=0.050450000 units=km
New "Line.SBT_20033" phases=4 bus1="BT368231.1.2.3.4" bus2="BT148971.1.2.3.4" linecode="73_4" length=0.043190000 units=km
New "Line.SBT_19999" phases=4 bus1="BT151011.1.2.3.4" bus2="ET3_120.1.2.3.4" linecode="97_4" length=0.061220000 units=km
New "Line.SBT_19986" phases=4 bus1="BT85451.1.2.3.4" bus2="ET3_119.1.2.3.4" linecode="97_4" length=0.077420000 units=km
New "Line.SBT_19967" phases=4 bus1="BT103981.1.2.3.4" bus2="BT147011.1.2.3.4" linecode="73_4" length=0.061130000 units=km
New "Line.SBT_19860" phases=2 bus1="BT92891.2.4" bus2="BT92882.2.4" linecode="62_2" length=0.086310000 units=km
New "Line.SBT_19759" phases=4 bus1="BT6871.1.2.3.4" bus2="BT6861.1.2.3.4" linecode="97_4" length=0.087970000 units=km
New "Line.SBT_19760" phases=4 bus1="BT40421.1.2.3.4" bus2="BT108691.1.2.3.4" linecode="97_4" length=0.048760000 units=km
New "Line.SBT_19747" phases=4 bus1="BT126271.1.2.3.4" bus2="BT126281.1.2.3.4" linecode="92_4" length=0.069050000 units=km
New "Line.SBT_19643" phases=4 bus1="BT126251.1.2.3.4" bus2="BT126261.1.2.3.4" linecode="75_4" length=0.063390000 units=km
New "Line.SBT_19644" phases=4 bus1="BT126471.1.2.3.4" bus2="ET3_111.1.2.3.4" linecode="97_4" length=0.042950000 units=km
New "Line.SBT_19650" phases=4 bus1="BT147041.1.2.3.4" bus2="BT147031.1.2.3.4" linecode="97_4" length=0.054950000 units=km
New "Line.SBT_19651" phases=2 bus1="BT126441.1.4" bus2="BT126451.1.4" linecode="60_2" length=0.055150000 units=km
New "Line.SBT_19652" phases=4 bus1="BT147011.1.2.3.4" bus2="BT147001.1.2.3.4" linecode="73_4" length=0.060640000 units=km
New "Line.SBT_19653" phases=4 bus1="BT147021.1.2.3.4" bus2="BT147001.1.2.3.4" linecode="97_4" length=0.037540000 units=km
New "Line.SBT_19663" phases=4 bus1="BT6841.1.2.3.4" bus2="BT134201.1.2.3.4" linecode="97_4" length=0.061060000 units=km
New "Line.SBT_19664" phases=4 bus1="BT6831.1.2.3.4" bus2="BT6841.1.2.3.4" linecode="97_4" length=0.104810000 units=km
New "Line.SBT_19620" phases=4 bus1="BT111311.1.2.3.4" bus2="ET3_4974.1.2.3.4" linecode="75_4" length=0.064560000 units=km
New "Line.SBT_35653" phases=4 bus1="BT761341.1.2.3.4" bus2="BT808601.1.2.3.4" linecode="74_4" length=0.032750000 units=km
New "Line.SBT_35654" phases=4 bus1="BT808561.1.2.3.4" bus2="BT808601.1.2.3.4" linecode="74_4" length=0.009580000 units=km
New "Line.SBT_35655" phases=4 bus1="BT808571.1.2.3.4" bus2="BT808601.1.2.3.4" linecode="74_4" length=0.016010000 units=km
New "Line.SBT_35656" phases=4 bus1="BT808601.1.2.3.4" bus2="BT761351.1.2.3.4" linecode="74_4" length=0.009450000 units=km
New "Line.SBT_35657" phases=4 bus1="BT812181.1.2.3.4" bus2="BT808561.1.2.3.4" linecode="74_4" length=0.027350000 units=km
New "Line.SBT_4130" phases=4 bus1="BT17411.1.2.3.4" bus2="ET3_102.1.2.3.4" linecode="97_4" length=0.080750000 units=km
New "Line.SBT_4157" phases=4 bus1="BT17461.1.2.3.4" bus2="ET3_3277.1.2.3.4" linecode="97_4" length=0.086610000 units=km
New "Line.SBT_4595" phases=4 bus1="BT109411.1.2.3.4" bus2="BT32451.1.2.3.4" linecode="75_4" length=0.040010000 units=km
New "Line.SBT_3989" phases=4 bus1="BT32471.1.2.3.4" bus2="BT32481.1.2.3.4" linecode="75_4" length=0.042190000 units=km
New "Line.SBT_3455" phases=4 bus1="BT22881.1.2.3.4" bus2="BT22871.1.2.3.4" linecode="73_4" length=0.077030000 units=km
New "Line.SBT_5414" phases=4 bus1="BT133641.1.2.3.4" bus2="BT145101.1.2.3.4" linecode="75_4" length=0.012810000 units=km
New "Line.SBT_3770" phases=4 bus1="BT143921.1.2.3.4" bus2="BT143911.1.2.3.4" linecode="75_4" length=0.022830000 units=km
New "Line.SBT_5373" phases=4 bus1="BT144011.1.2.3.4" bus2="BT144001.1.2.3.4" linecode="75_4" length=0.034000000 units=km
New "Line.SBT_36459" phases=3 bus1="BT383182.1.2.4" bus2="BT819651.1.2.4" linecode="59_3" length=0.057510000 units=km
New "Line.SBT_36460" phases=3 bus1="BT819651.1.2.4" bus2="BT819661.1.2.4" linecode="59_3" length=0.048420000 units=km
New "Line.SBT_36461" phases=3 bus1="BT819661.1.2.4" bus2="ET3_6480.1.2.4" linecode="59_3" length=0.062930000 units=km
New "Line.SBT_3700" phases=4 bus1="BT20552.1.2.3.4" bus2="BT20521.1.2.3.4" linecode="75_4" length=0.060070000 units=km
New "Line.SBT_33390" phases=4 bus1="BT111371.1.2.3.4" bus2="BT791341.1.2.3.4" linecode="73_4" length=0.016670000 units=km
New "Line.SBT_2870" phases=4 bus1="BT92911.1.2.3.4" bus2="ET3_2531.1.2.3.4" linecode="97_4" length=0.060110000 units=km
New "Line.SBT_2907" phases=4 bus1="BT101281.1.2.3.4" bus2="ET3_117.1.2.3.4" linecode="97_4" length=0.089190000 units=km
New "Line.SBT_2570" phases=4 bus1="BT85461.1.2.3.4" bus2="BT85451.1.2.3.4" linecode="97_4" length=0.067620000 units=km
New "Line.SBT_3022" phases=4 bus1="BT684431.1.2.3.4" bus2="BT323481.1.2.3.4" linecode="58_4" length=0.061830000 units=km
New "Line.SBT_3127" phases=4 bus1="BT111391.1.2.3.4" bus2="BT111401.1.2.3.4" linecode="97_4" length=0.039320000 units=km
New "Line.SBT_4128" phases=4 bus1="BT20511.1.2.3.4" bus2="BT20501.1.2.3.4" linecode="73_4" length=0.048930000 units=km
New "Line.SBT_18517" phases=4 bus1="BT745032.1.2.3.4" bus2="BT745051.1.2.3.4" linecode="74_4" length=0.039640000 units=km
New "Line.SBT_18463" phases=4 bus1="BT150001.1.2.3.4" bus2="BT150011.1.2.3.4" linecode="75_4" length=0.023850000 units=km
New "Line.SBT_18433" phases=4 bus1="BT339501.1.2.3.4" bus2="BT339431.1.2.3.4" linecode="58_4" length=0.052000000 units=km
New "Line.SBT_18378" phases=4 bus1="BT560152.1.2.3.4" bus2="BT560141.1.2.3.4" linecode="75_4" length=0.073540000 units=km
New "Line.SBT_18361" phases=4 bus1="BT140151.1.2.3.4" bus2="ET3_250.1.2.3.4" linecode="97_4" length=0.067210000 units=km
New "Line.SBT_18364" phases=4 bus1="BT126351.1.2.3.4" bus2="BT553401.1.2.3.4" linecode="73_4" length=0.054120000 units=km
New "Line.SBT_18371" phases=4 bus1="BT92771.1.2.3.4" bus2="BT92782.1.2.3.4" linecode="73_4" length=0.058310000 units=km
New "Line.SBT_18209" phases=4 bus1="BT123401.1.2.3.4" bus2="BT641661.1.2.3.4" linecode="92_4" length=0.037200000 units=km
New "Line.SBT_18221" phases=4 bus1="BT682531.1.2.3.4" bus2="BT682541.1.2.3.4" linecode="74_4" length=0.037350000 units=km
New "Line.SBT_18230" phases=2 bus1="BT295211.2.4" bus2="BT295201.2.4" linecode="62_2" length=0.077700000 units=km
New "Line.SBT_18204" phases=4 bus1="BT85501.1.2.3.4" bus2="BT87471.1.2.3.4" linecode="73_4" length=0.059670000 units=km
New "Line.SBT_17956" phases=4 bus1="BT687661.1.2.3.4" bus2="ET3_2691.1.2.3.4" linecode="73_4" length=0.029830000 units=km
New "Line.SBT_17957" phases=2 bus1="BT124801.1.4" bus2="ET3_2691.1.4" linecode="62_2" length=0.075430000 units=km
New "Line.SBT_17875" phases=2 bus1="BT392731.1.4" bus2="ET21_4029.1.4" linecode="62_2" length=0.073820000 units=km
New "Line.SBT_17885" phases=4 bus1="BT673901.1.2.3.4" bus2="BT673891.1.2.3.4" linecode="74_4" length=0.038220000 units=km
New "Line.SBT_17894" phases=4 bus1="BT684441.1.2.3.4" bus2="BT684431.1.2.3.4" linecode="58_4" length=0.039010000 units=km
New "Line.SBT_17841" phases=4 bus1="BT674041.1.2.3.4" bus2="ET3_5410.1.2.3.4" linecode="74_4" length=0.032380000 units=km
New "Line.SBT_17842" phases=4 bus1="BT673791.1.2.3.4" bus2="BT674041.1.2.3.4" linecode="74_4" length=0.010890000 units=km
New "Line.SBT_17843" phases=4 bus1="BT673821.1.2.3.4" bus2="BT673811.1.2.3.4" linecode="74_4" length=0.037720000 units=km
New "Line.SBT_17844" phases=4 bus1="BT673861.1.2.3.4" bus2="BT674051.1.2.3.4" linecode="74_4" length=0.006870000 units=km
New "Line.SBT_17845" phases=4 bus1="BT673851.1.2.3.4" bus2="BT674051.1.2.3.4" linecode="74_4" length=0.006900000 units=km
New "Line.SBT_17846" phases=4 bus1="BT673871.1.2.3.4" bus2="BT674051.1.2.3.4" linecode="74_4" length=0.031040000 units=km
New "Line.SBT_17848" phases=4 bus1="BT757251.1.2.3.4" bus2="BT683781.1.2.3.4" linecode="74_4" length=0.041300000 units=km
...


New "Line.SBT_9944" phases=4 bus1="BT105011.1.2.3.4" bus2="ET21_325.1.2.3.4" linecode="73_4" length=0.082230000 units=km
New "Line.SBT_9875" phases=4 bus1="BT71661.1.2.3.4" bus2="BT71671.1.2.3.4" linecode="73_4" length=0.069030000 units=km
New "Line.SBT_9733" phases=3 bus1="BT333041.1.2.4" bus2="ET21_1202.1.2.4" linecode="59_3" length=0.074530000 units=km
New "Line.SBT_9704" phases=4 bus1="BT71451.1.2.3.4" bus2="BT71461.1.2.3.4" linecode="73_4" length=0.049200000 units=km
New "Line.SBT_9711" phases=4 bus1="BT105001.1.2.3.4" bus2="BT105011.1.2.3.4" linecode="73_4" length=0.097490000 units=km
New "Line.SBT_9712" phases=4 bus1="BT105041.1.2.3.4" bus2="BT105033.1.2.3.4" linecode="73_4" length=0.066480000 units=km
New "Line.SBT_9713" phases=4 bus1="BT70531.1.2.3.4" bus2="BT105033.1.2.3.4" linecode="73_4" length=0.068250000 units=km
New "Line.SBT_9714" phases=4 bus1="BT105031.1.2.3.4" bus2="BT105051.1.2.3.4" linecode="73_4" length=0.095340000 units=km
New "Line.SBT_9715" phases=4 bus1="BT105051.1.2.3.4" bus2="BT10231.1.2.3.4" linecode="73_4" length=0.086130000 units=km
New "Line.SBT_9716" phases=4 bus1="BT151031.1.2.3.4" bus2="BT104991.1.2.3.4" linecode="73_4" length=0.089050000 units=km
New "Line.SBT_9380" phases=4 bus1="BT71481.1.2.3.4" bus2="ET21_138.1.2.3.4" linecode="73_4" length=0.094180000 units=km
New "Line.SBT_9381" phases=4 bus1="BT71491.1.2.3.4" bus2="BT71481.1.2.3.4" linecode="73_4" length=0.098790000 units=km
New "Line.SBT_8938" phases=4 bus1="BT10261.1.2.3.4" bus2="ET21_4811.1.2.3.4" linecode="73_4" length=0.071420000 units=km
New "Line.SBT_8939" phases=4 bus1="BT10251.1.2.3.4" bus2="BT716311.1.2.3.4" linecode="73_4" length=0.064330000 units=km
New "Line.SBT_8940" phases=4 bus1="BT70521.1.2.3.4" bus2="BT10261.1.2.3.4" linecode="73_4" length=0.087680000 units=km
New "Line.SBT_8920" phases=4 bus1="BT27731.1.2.3.4" bus2="ET21_1686.1.2.3.4" linecode="73_4" length=0.085020000 units=km
New "Line.SBT_8921" phases=4 bus1="BT27691.1.2.3.4" bus2="BT27701.1.2.3.4" linecode="73_4" length=0.063030000 units=km
New "Line.SBT_8248" phases=4 bus1="BT645041.1.2.3.4" bus2="ET21_4029.1.2.3.4" linecode="73_4" length=0.044180000 units=km
New "Line.SBT_7791" phases=2 bus1="BT333301.1.4" bus2="BT92882.1.4" linecode="62_2" length=0.048510000 units=km
New "Line.SBT_7751" phases=4 bus1="BT70751.1.2.3.4" bus2="BT295401.1.2.3.4" linecode="73_4" length=0.110150000 units=km
New "Line.SBT_7752" phases=4 bus1="BT133461.1.2.3.4" bus2="BT27621.1.2.3.4" linecode="73_4" length=0.067080000 units=km
New "Line.SBT_7753" phases=4 bus1="BT27631.1.2.3.4" bus2="ET21_144.1.2.3.4" linecode="73_4" length=0.084060000 units=km
New "Line.SBT_7755" phases=4 bus1="BT27661.1.2.3.4" bus2="BT27641.1.2.3.4" linecode="73_4" length=0.088810000 units=km
New "Line.SBT_7369" phases=4 bus1="BT124781.1.2.3.4" bus2="BT687661.1.2.3.4" linecode="73_4" length=0.061680000 units=km
New "Line.SBT_6942" phases=4 bus1="BT687731.1.2.3.4" bus2="ET3_4974.1.2.3.4" linecode="74_4" length=0.024090000 units=km
New "Line.SBT_6943" phases=4 bus1="BT687721.1.2.3.4" bus2="BT687731.1.2.3.4" linecode="74_4" length=0.024260000 units=km
New "Line.SBT_6645" phases=4 bus1="BT645021.1.2.3.4" bus2="ET21_4029.1.2.3.4" linecode="73_4" length=0.054410000 units=km
New "Line.SBT_5799" phases=2 bus1="BT561351.3.4" bus2="BT101061.3.4" linecode="62_2" length=0.085490000 units=km
New "Line.SBT_5650" phases=4 bus1="BT125031.1.2.3.4" bus2="BT125041.1.2.3.4" linecode="75_4" length=0.020120000 units=km
New "Line.SBT_5526" phases=4 bus1="BT124901.1.2.3.4" bus2="BT124891.1.2.3.4" linecode="75_4" length=0.023320000 units=km
New "Line.SBT_5528" phases=4 bus1="BT125041.1.2.3.4" bus2="BT125051.1.2.3.4" linecode="75_4" length=0.025810000 units=km
New "Line.SBT_5404" phases=4 bus1="BT125022.1.2.3.4" bus2="BT125031.1.2.3.4" linecode="75_4" length=0.026080000 units=km
New "Line.SBT_5405" phases=4 bus1="BT149991.1.2.3.4" bus2="BT150001.1.2.3.4" linecode="75_4" length=0.018030000 units=km
New "Line.SBT_5407" phases=4 bus1="BT133621.1.2.3.4" bus2="ET3_1905.1.2.3.4" linecode="75_4" length=0.024190000 units=km
New "Line.SBT_5408" phases=4 bus1="BT145101.1.2.3.4" bus2="ET3_1905.1.2.3.4" linecode="75_4" length=0.013600000 units=km
New "Line.SBT_5415" phases=4 bus1="BT143991.1.2.3.4" bus2="BT145101.1.2.3.4" linecode="75_4" length=0.016400000 units=km
New "Line.SBT_5416" phases=4 bus1="BT145061.1.2.3.4" bus2="BT133621.1.2.3.4" linecode="75_4" length=0.024410000 units=km
New "Line.SBT_5417" phases=3 bus1="BT133611.1.2.4" bus2="BT145061.1.2.4" linecode="76_3" length=0.003160000 units=km
New "Line.SBT_5418" phases=4 bus1="BT144021.1.2.3.4" bus2="BT145061.1.2.3.4" linecode="75_4" length=0.009430000 units=km
New "Line.SBT_5419" phases=4 bus1="BT144001.1.2.3.4" bus2="BT143991.1.2.3.4" linecode="75_4" length=0.034670000 units=km
New "Line.SBT_5420" phases=4 bus1="BT144031.1.2.3.4" bus2="BT145061.1.2.3.4" linecode="75_4" length=0.011660000 units=km
New "Line.SBT_5374" phases=4 bus1="BT133591.1.2.3.4" bus2="BT144031.1.2.3.4" linecode="75_4" length=0.018870000 units=km
New "Line.SBT_5375" phases=3 bus1="BT143951.1.2.4" bus2="BT143961.1.2.4" linecode="76_3" length=0.024410000 units=km
New "Line.SBT_5380" phases=4 bus1="BT5941.1.2.3.4" bus2="ET3_3393.1.2.3.4" linecode="73_4" length=0.029530000 units=km
New "Line.SBT_5201" phases=4 bus1="BT109601.1.2.3.4" bus2="BT85381.1.2.3.4" linecode="73_4" length=0.068350000 units=km
New "Line.SBT_5212" phases=4 bus1="BT89881.1.2.3.4" bus2="BT445031.1.2.3.4" linecode="73_4" length=0.082000000 units=km
New "Line.SBT_5184" phases=4 bus1="BT92762.1.2.3.4" bus2="BT92771.1.2.3.4" linecode="97_4" length=0.030000000 units=km
New "Line.SBT_4883" phases=4 bus1="BT133651.1.2.3.4" bus2="BT133641.1.2.3.4" linecode="75_4" length=0.025080000 units=km
New "Line.SBT_4622" phases=3 bus1="BT84031.1.2.4" bus2="BT84021.1.2.4" linecode="44_3" length=0.057780000 units=km
New "Line.SBT_4634" phases=4 bus1="BT124971.1.2.3.4" bus2="BT145121.1.2.3.4" linecode="75_4" length=0.018360000 units=km
New "Line.SBT_4635" phases=4 bus1="BT124961.1.2.3.4" bus2="BT145121.1.2.3.4" linecode="75_4" length=0.012210000 units=km
New "Line.SBT_4636" phases=4 bus1="BT144991.1.2.3.4" bus2="BT145091.1.2.3.4" linecode="75_4" length=0.004120000 units=km
New "Line.SBT_4594" phases=4 bus1="BT32391.1.2.3.4" bus2="BT32381.1.2.3.4" linecode="97_4" length=0.055730000 units=km
New "Line.SBT_4596" phases=3 bus1="BT32411.1.2.4" bus2="BT32401.1.2.4" linecode="44_3" length=0.072780000 units=km
New "Line.SBT_4597" phases=3 bus1="BT32421.1.2.4" bus2="BT32411.1.2.4" linecode="44_3" length=0.064260000 units=km
New "Line.SBT_4598" phases=2 bus1="BT32431.1.4" bus2="BT32421.1.4" linecode="60_2" length=0.079700000 units=km
New "Line.SBT_4607" phases=2 bus1="BT32441.1.4" bus2="BT32431.1.4" linecode="60_2" length=0.076560000 units=km
New "Line.SBT_4610" phases=4 bus1="BT145121.1.2.3.4" bus2="ET3_1903.1.2.3.4" linecode="75_4" length=0.012530000 units=km
New "Line.SBT_4611" phases=4 bus1="BT145091.1.2.3.4" bus2="BT125001.1.2.3.4" linecode="16_4" length=0.025550000 units=km
New "Line.SBT_4575" phases=4 bus1="BT32491.1.2.3.4" bus2="ET3_1880.1.2.3.4" linecode="97_4" length=0.041190000 units=km
New "Line.SBT_4583" phases=4 bus1="BT32481.1.2.3.4" bus2="BT32491.1.2.3.4" linecode="97_4" length=0.039320000 units=km
New "Line.SBT_4531" phases=4 bus1="BT133601.1.2.3.4" bus2="BT133591.1.2.3.4" linecode="75_4" length=0.026080000 units=km
New "Line.SBT_4536" phases=4 bus1="BT132421.1.2.3.4" bus2="BT132411.1.2.3.4" linecode="75_4" length=0.023710000 units=km
New "Line.SBT_4537" phases=4 bus1="BT132311.1.2.3.4" bus2="BT132321.1.2.3.4" linecode="75_4" length=0.024760000 units=km
New "Line.SBT_4538" phases=4 bus1="BT145171.1.2.3.4" bus2="BT132331.1.2.3.4" linecode="75_4" length=0.006320000 units=km
New "Line.SBT_4539" phases=4 bus1="BT143871.1.2.3.4" bus2="BT143861.1.2.3.4" linecode="75_4" length=0.021470000 units=km
New "Line.SBT_4385" phases=4 bus1="BT111251.1.2.3.4" bus2="BT549491.1.2.3.4" linecode="75_4" length=0.107840000 units=km
New "Line.SBT_4386" phases=4 bus1="BT111261.1.2.3.4" bus2="BT111251.1.2.3.4" linecode="75_4" length=0.039560000 units=km
New "Line.SBT_4396" phases=2 bus1="BT124701.3.4" bus2="ET3_1619.3.4" linecode="60_2" length=0.034210000 units=km
New "Line.SBT_4397" phases=2 bus1="BT124721.2.4" bus2="BT124711.2.4" linecode="60_2" length=0.048750000 units=km
New "Line.SBT_4398" phases=2 bus1="BT124731.2.4" bus2="BT124721.2.4" linecode="60_2" length=0.098250000 units=km
New "Line.SBT_4326" phases=4 bus1="BT20601.1.2.3.4" bus2="ET3_5126.1.2.3.4" linecode="75_4" length=0.069870000 units=km
New "Line.SBT_4290" phases=4 bus1="BT150021.1.2.3.4" bus2="BT145171.1.2.3.4" linecode="75_4" length=0.015810000 units=km
New "Line.SBT_4266" phases=4 bus1="BT143861.1.2.3.4" bus2="BT143851.1.2.3.4" linecode="75_4" length=0.025000000 units=km
New "Line.SBT_4267" phases=4 bus1="BT132351.1.2.3.4" bus2="BT132361.1.2.3.4" linecode="75_4" length=0.022360000 units=km
New "Line.SBT_4277" phases=4 bus1="BT125051.1.2.3.4" bus2="BT125061.1.2.3.4" linecode="75_4" length=0.024170000 units=km
New "Line.SBT_4233" phases=4 bus1="BT140161.1.2.3.4" bus2="BT140151.1.2.3.4" linecode="97_4" length=0.070770000 units=km
New "Line.SBT_4203" phases=4 bus1="BT149822.1.2.3.4" bus2="ET3_109.1.2.3.4" linecode="73_4" length=0.064900000 units=km
New "Line.SBT_4204" phases=4 bus1="BT17421.1.2.3.4" bus2="BT17411.1.2.3.4" linecode="97_4" length=0.066100000 units=km
New "Line.SBT_4206" phases=4 bus1="BT26151.1.2.3.4" bus2="BT6931.1.2.3.4" linecode="97_4" length=0.068010000 units=km
New "Line.SBT_4207" phases=4 bus1="BT17431.1.2.3.4" bus2="BT17421.1.2.3.4" linecode="97_4" length=0.050450000 units=km
New "Line.SBT_4210" phases=4 bus1="BT6892.1.2.3.4" bus2="BT6901.1.2.3.4" linecode="97_4" length=0.058690000 units=km
New "Line.SBT_4213" phases=4 bus1="BT637751.1.2.3.4" bus2="BT144681.1.2.3.4" linecode="73_4" length=0.063250000 units=km
New "Line.SBT_4214" phases=4 bus1="BT144701.1.2.3.4" bus2="ET3_5250.1.2.3.4" linecode="73_4" length=0.064200000 units=km
New "Line.SBT_4201" phases=4 bus1="BT149081.1.2.3.4" bus2="BT149091.1.2.3.4" linecode="73_4" length=0.054640000 units=km
New "Line.SBT_4154" phases=4 bus1="BT134251.1.2.3.4" bus2="ET3_110.1.2.3.4" linecode="92_4" length=0.006000000 units=km
New "Line.SBT_4158" phases=2 bus1="BT101061.3.4" bus2="BT17481.3.4" linecode="62_2" length=0.054590000 units=km
New "Line.SBT_4159" phases=2 bus1="BT17481.3.4" bus2="ET3_3277.3.4" linecode="62_2" length=0.028020000 units=km
New "Line.SBT_4169" phases=2 bus1="BT126371.1.4" bus2="BT126361.1.4" linecode="60_2" length=0.078640000 units=km
New "Line.SBT_4122" phases=4 bus1="BT149791.1.2.3.4" bus2="BT149781.1.2.3.4" linecode="16_4" length=0.093840000 units=km
New "Line.SBT_4123" phases=4 bus1="BT149801.1.2.3.4" bus2="BT149791.1.2.3.4" linecode="16_4" length=0.073190000 units=km
New "Line.SBT_4124" phases=2 bus1="BT349751.1.4" bus2="BT132221.1.4" linecode="60_2" length=0.034210000 units=km
New "Line.SBT_4125" phases=2 bus1="BT349761.1.4" bus2="BT349751.1.4" linecode="60_2" length=0.050640000 units=km
New "Line.SBT_4126" phases=4 bus1="BT20471.1.2.3.4" bus2="ET3_101.1.2.3.4" linecode="75_4" length=0.052040000 units=km
New "Line.SBT_4127" phases=2 bus1="BT20591.1.4" bus2="ET3_5126.1.4" linecode="60_2" length=0.138920000 units=km
New "Line.SBT_4129" phases=4 bus1="BT20461.1.2.3.4" bus2="BT20471.1.2.3.4" linecode="75_4" length=0.085380000 units=km
New "Line.SBT_4098" phases=4 bus1="BT125451.1.2.3.4" bus2="ET3_1435.1.2.3.4" linecode="97_4" length=0.018360000 units=km
...